Version 4
SHEET 1 880 680
WIRE -64 144 -96 144
WIRE 80 144 16 144
WIRE 320 144 176 144
WIRE -96 256 -96 144
WIRE -16 256 -96 256
WIRE 128 256 128 208
WIRE 128 256 64 256
FLAG -176 144 0
FLAG 320 144 0
FLAG 208 256 0
SYMBOL res -32 240 M90
WINDOW 0 0 56 VBottom 2
WINDOW 3 32 56 VTop 2
SYMATTR InstName R2
SYMATTR Value 820
SYMBOL pnp 176 208 M270
SYMATTR InstName Q1
SYMATTR Value BD136
SYMBOL voltage -80 144 R90
WINDOW 0 -32 56 VBottom 2
WINDOW 3 32 56 VTop 2
WINDOW 123 0 0 Left 0
WINDOW 39 0 0 Left 0
SYMATTR InstName V1
SYMATTR Value 10
SYMBOL res 32 128 R90
WINDOW 0 0 56 VBottom 2
WINDOW 3 32 56 VTop 2
SYMATTR InstName R1
SYMATTR Value 10
SYMBOL res 224 240 R90
WINDOW 0 0 56 VBottom 2
WINDOW 3 32 56 VTop 2
SYMATTR InstName R5
SYMATTR Value 2K
TEXT -200 304 Left 2 !.tran 1m
TEXT 504 216 Left 2 !.include BD136.txt
