Version 4
SHEET 1 2020 920
WIRE 688 0 640 0
WIRE 928 0 688 0
WIRE 1072 0 928 0
WIRE 1168 0 1072 0
WIRE 1472 0 1168 0
WIRE 640 16 640 0
WIRE 1168 32 1168 0
WIRE 928 48 928 0
WIRE 640 96 640 80
WIRE 1168 144 1168 112
WIRE 1904 176 1904 112
WIRE 2000 176 1904 176
WIRE 928 192 928 128
WIRE 1104 192 928 192
WIRE 1472 224 1472 0
WIRE 1904 224 1904 176
WIRE 928 240 928 192
WIRE 1168 272 1168 240
WIRE 1168 272 1072 272
WIRE 1408 272 1168 272
WIRE 1072 304 1072 272
WIRE 1168 352 1168 272
WIRE 1472 352 1472 320
WIRE 1072 400 1072 384
WIRE 1104 400 1072 400
WIRE 1072 432 1072 400
WIRE 1472 448 1472 432
WIRE 1632 448 1472 448
WIRE 1648 448 1632 448
WIRE 1712 448 1648 448
WIRE 1472 464 1472 448
WIRE 1712 480 1712 448
WIRE 928 512 832 512
WIRE 1072 512 992 512
WIRE 1168 512 1168 448
WIRE 1168 512 1072 512
WIRE 1376 512 1168 512
WIRE 1168 560 1168 512
WIRE 688 576 688 0
WIRE 368 592 224 592
WIRE 496 592 448 592
WIRE 656 592 496 592
WIRE 1376 592 1376 512
WIRE 1408 592 1376 592
WIRE 496 608 496 592
WIRE 960 608 720 608
WIRE 1104 608 1040 608
WIRE 656 624 592 624
WIRE 224 640 224 592
WIRE 1040 640 1040 608
WIRE 912 656 912 640
WIRE 1168 672 1168 656
WIRE 1632 672 1632 448
WIRE 592 720 592 624
WIRE 832 720 832 512
WIRE 832 720 592 720
WIRE 688 752 688 640
WIRE 912 752 912 720
WIRE 912 752 688 752
WIRE 1040 752 1040 720
WIRE 1040 752 912 752
WIRE 1168 752 1040 752
WIRE 1312 752 1168 752
WIRE 1472 752 1472 640
WIRE 1472 752 1312 752
WIRE 592 784 592 720
WIRE 1632 784 1632 752
WIRE 1632 784 592 784
WIRE 592 800 592 784
FLAG 640 96 0
FLAG 928 320 0
FLAG 1712 560 0
FLAG 1648 448 Vout
FLAG 912 640 0
FLAG 592 880 0
FLAG 496 688 0
FLAG 224 720 0
FLAG 1072 0 Vcc
FLAG 1312 752 -Vcc
FLAG 2000 176 0
FLAG 1904 32 Vcc
FLAG 1904 304 -Vcc
SYMBOL cap 624 16 R0
SYMATTR InstName C1
SYMATTR Value 10µ
SYMBOL res 912 32 R0
SYMATTR InstName R1
SYMATTR Value 1k
SYMBOL res 912 224 R0
SYMATTR InstName R2
SYMATTR Value 8.2k
SYMBOL pnp 1104 240 M180
SYMATTR InstName Q1
SYMATTR Value BC308
SYMBOL res 1152 16 R0
SYMATTR InstName R3
SYMATTR Value 15
SYMBOL npn 1408 224 R0
SYMATTR InstName Q2
SYMATTR Value BD135
SYMBOL res 1456 336 R0
SYMATTR InstName R4
SYMATTR Value 0.5
SYMBOL res 1696 464 R0
SYMATTR InstName R5
SYMATTR Value 8.2
SYMBOL res 1056 288 R0
SYMATTR InstName R6
SYMATTR Value 330
SYMBOL res 1056 416 R0
SYMATTR InstName R7
SYMATTR Value 430
SYMBOL npn 1104 352 R0
SYMATTR InstName Q3
SYMATTR Value BC238
SYMBOL res 1456 448 R0
SYMATTR InstName R8
SYMATTR Value 0.5
SYMBOL pnp 1408 640 M180
SYMATTR InstName Q4
SYMATTR Value BD136
SYMBOL npn 1104 560 R0
SYMATTR InstName Q5
SYMATTR Value BC238
SYMBOL res 1152 656 R0
SYMATTR InstName R9
SYMATTR Value 10
SYMBOL res 1024 624 R0
SYMATTR InstName R10
SYMATTR Value 1k
SYMBOL cap 896 656 R0
SYMATTR InstName C2
SYMATTR Value 10µ
SYMBOL res 1056 592 R90
WINDOW 0 0 56 VBottom 2
WINDOW 3 32 56 VTop 2
SYMATTR InstName R11
SYMATTR Value 5.6k
SYMBOL res 1616 656 R0
SYMATTR InstName R12
SYMATTR Value 9.1k
SYMBOL OpAmps\\opamp2 688 544 R0
SYMATTR InstName U1
SYMATTR Value LM358
SYMBOL cap 992 496 R90
WINDOW 0 0 32 VBottom 2
WINDOW 3 32 32 VTop 2
SYMATTR InstName C3
SYMATTR Value 10p
SYMBOL res 576 784 R0
SYMATTR InstName R13
SYMATTR Value 1k
SYMBOL res 480 592 R0
SYMATTR InstName R14
SYMATTR Value 10k
SYMBOL res 464 576 R90
WINDOW 0 0 56 VBottom 2
WINDOW 3 32 56 VTop 2
SYMATTR InstName R15
SYMATTR Value 50
SYMBOL voltage 224 624 R0
WINDOW 123 0 0 Left 0
WINDOW 39 0 0 Left 0
SYMATTR InstName V1
SYMATTR Value SINE(0 {Vin} {f})
SYMBOL voltage 1904 16 R0
WINDOW 123 0 0 Left 0
WINDOW 39 0 0 Left 0
SYMATTR InstName V2
SYMATTR Value 9
SYMBOL voltage 1904 208 R0
WINDOW 123 0 0 Left 0
WINDOW 39 0 0 Left 0
SYMATTR InstName V3
SYMATTR Value 9
TEXT 280 152 Left 2 !.include LM358.txt
TEXT 280 120 Left 2 !.include BD136.txt
TEXT 280 88 Left 2 !.include BD135.txt
TEXT 280 56 Left 2 !.include BC238.txt
TEXT 280 24 Left 2 !.include BC308.txt
TEXT -96 224 Left 2 !.meas PS avg -V(Vcc)*I(V2)+V(-Vcc)*I(V3)\n.meas Pout avg V(vout)*I(R5)\n.meas efficiency param Pout/PS \n.meas voutpp pp V(vout)
TEXT -96 368 Left 2 !.param f 1000
TEXT -96 904 Left 2 !.tran 0 40m 0
TEXT -88 400 Left 2 !.meas gain param 20*log10(voutpp/(2*vin))
TEXT -88 440 Left 2 ;.step param Vin 0 0.7 0.1
TEXT -96 480 Left 2 !.param Vin 0.3
TEXT -96 528 Left 2 ;.step param f 10 40000 5000
