Version 4
SHEET 1 1016 680
WIRE 224 16 224 -80
WIRE 224 16 128 16
WIRE 288 16 224 16
WIRE 128 96 128 16
WIRE 288 160 288 96
WIRE 128 208 128 176
WIRE 224 208 128 208
WIRE 128 256 128 208
WIRE 288 272 288 256
WIRE 432 272 288 272
FLAG 224 -160 0
FLAG 128 336 0
FLAG 512 272 0
SYMBOL res 112 80 R0
SYMATTR InstName R1
SYMATTR Value 27k
SYMBOL res 112 240 R0
SYMATTR InstName R2
SYMATTR Value 100k
SYMBOL pnp 224 256 M180
SYMATTR InstName Q1
SYMATTR Value BC308
SYMBOL voltage 224 -64 R180
WINDOW 0 24 96 Left 2
WINDOW 3 24 16 Left 2
WINDOW 123 0 0 Left 0
WINDOW 39 0 0 Left 0
SYMATTR InstName V1
SYMATTR Value 9
SYMBOL res 272 0 R0
SYMATTR InstName R3
SYMATTR Value 15
SYMBOL res 528 256 R90
WINDOW 0 0 56 VBottom 2
WINDOW 3 32 56 VTop 2
SYMATTR InstName R4
SYMATTR Value 10
TEXT 800 16 Left 2 !.include BC308.txt
TEXT 108 360 Left 2 !.tran 1
